---------------------------------------------------------------------------
sm2
---------------------------------------------------------------------------

sm2_gto

L1D_total_cache_misses = 29528
L1D_total_cache_miss_rate = 0.4075
L2_total_cache_misses = 26
L2_total_cache_miss_rate = 0.0004
gpgpu_simulation_time = 0 days, 0 hrs, 0 min, 11 sec (11 sec)
gpgpu_simulation_rate = 147790 (inst/sec)
gpgpu_simulation_rate = 4632 (cycle/sec)
gpgpu_silicon_slowdown = 151122x
Kernel Executed 8 times
Result stored in result.txt
GPGPU-Sim: *** exit detected ***

---------------------------------------------------------------------------

sm2_lrr

L1D_total_cache_misses = 29603
L1D_total_cache_miss_rate = 0.4085
L2_total_cache_misses = 26
L2_total_cache_miss_rate = 0.0004
gpgpu_simulation_time = 0 days, 0 hrs, 0 min, 11 sec (11 sec)
gpgpu_simulation_rate = 147790 (inst/sec)
gpgpu_simulation_rate = 4698 (cycle/sec)
gpgpu_silicon_slowdown = 148999x
Kernel Executed 8 times
Result stored in result.txt
GPGPU-Sim: *** exit detected ***

---------------------------------------------------------------------------

sm2_tla

L1D_total_cache_misses = 29676
L1D_total_cache_miss_rate = 0.4096
L2_total_cache_misses = 26
L2_total_cache_miss_rate = 0.0004
gpgpu_simulation_time = 0 days, 0 hrs, 0 min, 12 sec (12 sec)
gpgpu_simulation_rate = 135474 (inst/sec)
gpgpu_simulation_rate = 4383 (cycle/sec)
gpgpu_silicon_slowdown = 159707x
Kernel Executed 8 times
Result stored in result.txt
GPGPU-Sim: *** exit detected ***

---------------------------------------------------------------------------
sm3
---------------------------------------------------------------------------

sm3_gto

L1D_total_cache_accesses = 0
L1D_total_cache_misses = 0
L2_total_cache_misses = 26
L2_total_cache_miss_rate = 0.0003
gpgpu_simulation_time = 0 days, 0 hrs, 0 min, 20 sec (20 sec)
gpgpu_simulation_rate = 81284 (inst/sec)
gpgpu_simulation_rate = 3212 (cycle/sec)
gpgpu_silicon_slowdown = 260585x
Kernel Executed 8 times
Result stored in result.txt
GPGPU-Sim: *** exit detected ***

---------------------------------------------------------------------------

sm3_lrr

L1D_total_cache_accesses = 0
L1D_total_cache_misses = 0
L2_total_cache_misses = 26
L2_total_cache_miss_rate = 0.0003
gpgpu_simulation_time = 0 days, 0 hrs, 0 min, 21 sec (21 sec)
gpgpu_simulation_rate = 77414 (inst/sec)
gpgpu_simulation_rate = 3108 (cycle/sec)
gpgpu_silicon_slowdown = 269305x
Kernel Executed 8 times
Result stored in result.txt
GPGPU-Sim: *** exit detected ***

---------------------------------------------------------------------------

sm3_tla

L1D_total_cache_accesses = 0
L1D_total_cache_misses = 0
L2_total_cache_accesses = 90993
L2_total_cache_misses = 26
gpgpu_simulation_time = 0 days, 0 hrs, 0 min, 22 sec (22 sec)
gpgpu_simulation_rate = 73895 (inst/sec)
gpgpu_simulation_rate = 2986 (cycle/sec)
gpgpu_silicon_slowdown = 280308x
Kernel Executed 8 times
Result stored in result.txt
GPGPU-Sim: *** exit detected ***

---------------------------------------------------------------------------
sm6
---------------------------------------------------------------------------

sm6_gto

L1D_total_cache_accesses = 0
L1D_total_cache_misses = 0
L2_total_cache_accesses = 90629
L2_total_cache_misses = 0
L2_total_cache_miss_rate = 0.0000
gpgpu_simulation_time = 0 days, 0 hrs, 0 min, 38 sec (38 sec)
gpgpu_simulation_rate = 42781 (inst/sec)
gpgpu_simulation_rate = 3752 (cycle/sec)
gpgpu_silicon_slowdown = 377665x
Kernel Executed 8 times
Result stored in result.txt
GPGPU-Sim: *** exit detected ***

---------------------------------------------------------------------------

sm6_lrr

L1D_total_cache_accesses = 0
L1D_total_cache_misses = 0
L2_total_cache_accesses = 90629
L2_total_cache_misses = 0
L2_total_cache_miss_rate = 0.0000
gpgpu_simulation_time = 0 days, 0 hrs, 0 min, 40 sec (40 sec)
gpgpu_simulation_rate = 40642 (inst/sec)
gpgpu_simulation_rate = 3581 (cycle/sec)
gpgpu_silicon_slowdown = 395699x
Kernel Executed 8 times
Result stored in result.txt

---------------------------------------------------------------------------

sm6_tla

L1D_total_cache_accesses = 0
L1D_total_cache_misses = 0
L2_total_cache_accesses = 90629
L2_total_cache_misses = 0
L2_total_cache_miss_rate = 0.0000
gpgpu_simulation_time = 0 days, 0 hrs, 0 min, 41 sec (41 sec)
gpgpu_simulation_rate = 39651 (inst/sec)
gpgpu_simulation_rate = 3504 (cycle/sec)
gpgpu_silicon_slowdown = 404394x
Kernel Executed 8 times
Result stored in result.txt
GPGPU-Sim: *** exit detected ***

---------------------------------------------------------------------------
sm7_q
---------------------------------------------------------------------------

sm7_q_gto

L1D_total_cache_misses = 33266
L1D_total_cache_miss_rate = 0.3671
L2_total_cache_accesses = 33197
L2_total_cache_misses = 0
L2_total_cache_miss_rate = 0.0000
gpgpu_simulation_time = 0 days, 0 hrs, 1 min, 14 sec (74 sec)
gpgpu_simulation_rate = 21968 (inst/sec)
gpgpu_simulation_rate = 1645 (cycle/sec)
gpgpu_silicon_slowdown = 688145x
Kernel Executed 8 times
Result stored in result.txt
GPGPU-Sim: *** exit detected ***

---------------------------------------------------------------------------

sm7_q_lrr

L1D_total_cache_misses = 33258
L1D_total_cache_miss_rate = 0.3670
L2_total_cache_accesses = 33185
L2_total_cache_misses = 0
L2_total_cache_miss_rate = 0.0000
gpgpu_simulation_time = 0 days, 0 hrs, 1 min, 19 sec (79 sec)
gpgpu_simulation_rate = 20578 (inst/sec)
gpgpu_simulation_rate = 1543 (cycle/sec)
gpgpu_silicon_slowdown = 733635x
Kernel Executed 8 times
Result stored in result.txt
GPGPU-Sim: *** exit detected ***

---------------------------------------------------------------------------

sm7_q_tla

L1D_total_cache_misses = 33257
L1D_total_cache_miss_rate = 0.3670
L2_total_cache_accesses = 33191
L2_total_cache_misses = 0
L2_total_cache_miss_rate = 0.0000
gpgpu_simulation_time = 0 days, 0 hrs, 1 min, 22 sec (82 sec)
gpgpu_simulation_rate = 19825 (inst/sec)
gpgpu_simulation_rate = 1491 (cycle/sec)
gpgpu_silicon_slowdown = 759221x
Kernel Executed 8 times
Result stored in result.txt
GPGPU-Sim: *** exit detected ***

---------------------------------------------------------------------------
sm7_t
---------------------------------------------------------------------------

sm7_t_gto

L1D_total_cache_misses = 33280
L1D_total_cache_miss_rate = 0.3672
L2_total_cache_accesses = 33194
L2_total_cache_misses = 0
L2_total_cache_miss_rate = 0.0000
gpgpu_simulation_time = 0 days, 0 hrs, 0 min, 35 sec (35 sec)
gpgpu_simulation_rate = 46448 (inst/sec)
gpgpu_simulation_rate = 1200 (cycle/sec)
gpgpu_silicon_slowdown = 1000000x
Kernel Executed 8 times
Result stored in result.txt
GPGPU-Sim: *** exit detected ***

---------------------------------------------------------------------------

sm7_t_lrr

L1D_total_cache_misses = 33293
L1D_total_cache_miss_rate = 0.3674
L2_total_cache_accesses = 33183
L2_total_cache_misses = 0
L2_total_cache_miss_rate = 0.0000
gpgpu_simulation_time = 0 days, 0 hrs, 0 min, 35 sec (35 sec)
gpgpu_simulation_rate = 46448 (inst/sec)
gpgpu_simulation_rate = 1202 (cycle/sec)
gpgpu_silicon_slowdown = 998336x
Kernel Executed 8 times
Result stored in result.txt
GPGPU-Sim: *** exit detected ***

---------------------------------------------------------------------------

sm7_t_tla

L1D_total_cache_misses = 33299
L1D_total_cache_miss_rate = 0.3674
L2_total_cache_accesses = 33189
L2_total_cache_misses = 0
L2_total_cache_miss_rate = 0.0000
gpgpu_simulation_time = 0 days, 0 hrs, 0 min, 33 sec (33 sec)
gpgpu_simulation_rate = 49263 (inst/sec)
gpgpu_simulation_rate = 1288 (cycle/sec)
gpgpu_silicon_slowdown = 931677x
Kernel Executed 8 times
Result stored in result.txt
GPGPU-Sim: *** exit detected ***

---------------------------------------------------------------------------
sm75
---------------------------------------------------------------------------

sm75_gto

L1D_total_cache_misses = 33273
L1D_total_cache_miss_rate = 0.3671
L2_total_cache_accesses = 33188
L2_total_cache_misses = 0
L2_total_cache_miss_rate = 0.0000
gpgpu_simulation_time = 0 days, 0 hrs, 0 min, 32 sec (32 sec)
gpgpu_simulation_rate = 50803 (inst/sec)
gpgpu_simulation_rate = 3807 (cycle/sec)
gpgpu_silicon_slowdown = 358550x
Kernel Executed 8 times
Result stored in result.txt
GPGPU-Sim: *** exit detected ***

---------------------------------------------------------------------------

sm75_lrr

L1D_total_cache_misses = 33274
L1D_total_cache_miss_rate = 0.3671L2_total_cache_accesses = 33196
L2_total_cache_misses = 0
L2_total_cache_miss_rate = 0.0000
gpgpu_simulation_time = 0 days, 0 hrs, 0 min, 32 sec (32 sec)
gpgpu_simulation_rate = 50803 (inst/sec)
gpgpu_simulation_rate = 3810 (cycle/sec)
gpgpu_silicon_slowdown = 358267x
Kernel Executed 8 times
Result stored in result.txt
GPGPU-Sim: *** exit detected ***

---------------------------------------------------------------------------

sm75_tla

L1D_total_cache_misses = 33302
L1D_total_cache_miss_rate = 0.3675
L2_total_cache_accesses = 33182
L2_total_cache_misses = 0
L2_total_cache_miss_rate = 0.0000
gpgpu_simulation_time = 0 days, 0 hrs, 0 min, 34 sec (34 sec)
gpgpu_simulation_rate = 47814 (inst/sec)
gpgpu_simulation_rate = 3586 (cycle/sec)
gpgpu_silicon_slowdown = 380646x
Kernel Executed 8 times
Result stored in result.txt
GPGPU-Sim: *** exit detected ***

---------------------------------------------------------------------------

sm2_gto

kernel_avg_power = 46.6862
gpu_avg_IBP, = 0.008723
gpu_avg_ICP, = 0.125234
gpu_avg_DCP, = 0.100102
gpu_avg_TCP, = 0
gpu_avg_CCP, = 1.12836
gpu_avg_SHRDP, = 0
gpu_avg_RFP, = 2.97421
gpu_avg_SPP, = 2.30828
gpu_avg_SFUP, = 0
gpu_avg_FPUP, = 0
gpu_avg_SCHEDP, = 0.125028
gpu_avg_L2CP, = 0.0471247
gpu_avg_MCP, = 1.34501
gpu_avg_NOCP, = 0.0569943
gpu_avg_DRAMP, = 0
gpu_avg_PIPEP, = 9.84012
gpu_avg_IDLE_COREP, = 18.8033
gpu_avg_CONST_DYNAMICP = 9.82366
gpu_avg_TOT_INST, = 1724
gpu_avg_FP_INT, = 1627
gpu_avg_IC_H, = 863
gpu_avg_IC_M, = 16
gpu_avg_DC_RH, = 22
gpu_avg_DC_RM, = 8
gpu_avg_DC_WH, = 0
gpu_avg_DC_WM, = 0
gpu_avg_TC_H, = 0
gpu_avg_TC_M, = 0
gpu_avg_CC_H, = 624
gpu_avg_CC_M, = 0
gpu_avg_SHRD_ACC, = 0
gpu_avg_REG_RD, = 29664
gpu_avg_REG_WR, = 24192
gpu_avg_NON_REG_OPs, = 33280
gpu_avg_SP_ACC, = 611840
gpu_avg_SFU_ACC, = 0
gpu_avg_FPU_ACC, = 0
gpu_avg_MEM_RD, = 0
gpu_avg_MEM_WR, = 0
gpu_avg_MEM_PRE, = 0
gpu_avg_L2_RH, = 12
gpu_avg_L2_RM, = 0
gpu_avg_L2_WH, = 0
gpu_avg_L2_WM, = 0
gpu_avg_NOC_A, = 21
gpu_avg_PIPE_A, = 0.386467
gpu_avg_IDLE_CORE_N, = 11.826
gpu_avg_CONST_DYNAMICN = 0

---------------------------------------------------------------------------

sm3_gto

kernel_avg_power = 34.659
gpu_avg_IBP, = 0.00397696
gpu_avg_ICP, = 0.0349016
gpu_avg_DCP, = 0
gpu_avg_TCP, = 0
gpu_avg_CCP, = 0.549715
gpu_avg_SHRDP, = 0
gpu_avg_RFP, = 1.14656
gpu_avg_SPP, = 0.448135
gpu_avg_SFUP, = 0
gpu_avg_FPUP, = 0
gpu_avg_SCHEDP, = 0.0579415
gpu_avg_L2CP, = 0.0157082
gpu_avg_MCP, = 1.2511
gpu_avg_NOCP, = 0.0217121
gpu_avg_DRAMP, = 0
gpu_avg_PIPEP, = 2.15879
gpu_avg_IDLE_COREP, = 19.1468
gpu_avg_CONST_DYNAMICP = 9.82366
gpu_avg_TOT_INST, = 786
gpu_avg_FP_INT, = 754
gpu_avg_IC_H, = 393
gpu_avg_IC_M, = 0
gpu_avg_DC_RH, = 0
gpu_avg_DC_RM, = 0
gpu_avg_DC_WH, = 0
gpu_avg_DC_WM, = 0
gpu_avg_TC_H, = 0
gpu_avg_TC_M, = 0
gpu_avg_CC_H, = 304
gpu_avg_CC_M, = 0
gpu_avg_SHRD_ACC, = 0
gpu_avg_REG_RD, = 5056
gpu_avg_REG_WR, = 4864
gpu_avg_NON_REG_OPs, = 14208
gpu_avg_SP_ACC, = 118784
gpu_avg_SFU_ACC, = 0
gpu_avg_FPU_ACC, = 0
gpu_avg_MEM_RD, = 0
gpu_avg_MEM_WR, = 0
gpu_avg_MEM_PRE, = 0
gpu_avg_L2_RH, = 4
gpu_avg_L2_RM, = 0
gpu_avg_L2_WH, = 0
gpu_avg_L2_WM, = 0
gpu_avg_NOC_A, = 8
gpu_avg_PIPE_A, = 0.0847856
gpu_avg_IDLE_CORE_N, = 12.042
gpu_avg_CONST_DYNAMICN = 0

---------------------------------------------------------------------------

sm6_gto

kernel_avg_power = 58.6095
gpu_avg_IBP, = 0.000947553
gpu_avg_ICP, = 0
gpu_avg_DCP, = 0
gpu_avg_TCP, = 0
gpu_avg_CCP, = 0
gpu_avg_SHRDP, = 0
gpu_avg_RFP, = 0.312926
gpu_avg_SPP, = 0.27025
gpu_avg_SFUP, = 0
gpu_avg_FPUP, = 0
gpu_avg_SCHEDP, = 0.0134759
gpu_avg_L2CP, = 0.00071401
gpu_avg_MCP, = 1.17634
gpu_avg_NOCP, = 0.0323214
gpu_avg_DRAMP, = 0
gpu_avg_PIPEP, = 2.97111
gpu_avg_IDLE_COREP, = 44.0077
gpu_avg_CONST_DYNAMICP = 9.82366
gpu_avg_TOT_INST, = 187.273
gpu_avg_FP_INT, = 175.364
gpu_avg_IC_H, = 0
gpu_avg_IC_M, = 0
gpu_avg_DC_RH, = 0
gpu_avg_DC_RM, = 0
gpu_avg_DC_WH, = 0
gpu_avg_DC_WM, = 0
gpu_avg_TC_H, = 0
gpu_avg_TC_M, = 0
gpu_avg_CC_H, = 0
gpu_avg_CC_M, = 0
gpu_avg_SHRD_ACC, = 0
gpu_avg_REG_RD, = 3755.64
gpu_avg_REG_WR, = 3002.18
gpu_avg_NON_REG_OPs, = 3362.91
gpu_avg_SP_ACC, = 71633.5
gpu_avg_SFU_ACC, = 0
gpu_avg_FPU_ACC, = 0
gpu_avg_MEM_RD, = 0
gpu_avg_MEM_WR, = 0
gpu_avg_MEM_PRE, = 0
gpu_avg_L2_RH, = 0.181818
gpu_avg_L2_RM, = 0
gpu_avg_L2_WH, = 0
gpu_avg_L2_WM, = 0
gpu_avg_NOC_A, = 11.9091
gpu_avg_PIPE_A, = 0.116689
gpu_avg_IDLE_CORE_N, = 27.6778
gpu_avg_CONST_DYNAMICN = 0

---------------------------------------------------------------------------

sm7_q_gto

kernel_avg_power = 139.014
gpu_avg_IBP, = 0.00060257
gpu_avg_ICP, = 0
gpu_avg_DCP, = 0.000562161
gpu_avg_TCP, = 0
gpu_avg_CCP, = 0
gpu_avg_SHRDP, = 0
gpu_avg_RFP, = 0.238634
gpu_avg_SPP, = 0.128716
gpu_avg_SFUP, = 0
gpu_avg_FPUP, = 0
gpu_avg_SCHEDP, = 0.0091027
gpu_avg_L2CP, = 0.00107102
gpu_avg_MCP, = 1.17643
gpu_avg_NOCP, = 0.000986914
gpu_avg_DRAMP, = 0
gpu_avg_PIPEP, = 0.79837
gpu_avg_IDLE_COREP, = 126.835
gpu_avg_CONST_DYNAMICP = 9.82366
gpu_avg_TOT_INST, = 119.091
gpu_avg_FP_INT, = 118.455
gpu_avg_IC_H, = 0
gpu_avg_IC_M, = 0
gpu_avg_DC_RH, = 0.0909091
gpu_avg_DC_RM, = 0.0909091
gpu_avg_DC_WH, = 0
gpu_avg_DC_WM, = 0
gpu_avg_TC_H, = 0
gpu_avg_TC_M, = 0
gpu_avg_CC_H, = 0
gpu_avg_CC_M, = 0
gpu_avg_SHRD_ACC, = 0
gpu_avg_REG_RD, = 866.909
gpu_avg_REG_WR, = 864
gpu_avg_NON_REG_OPs, = 2999.27
gpu_avg_SP_ACC, = 34117.8
gpu_avg_SFU_ACC, = 0
gpu_avg_FPU_ACC, = 0
gpu_avg_MEM_RD, = 0
gpu_avg_MEM_WR, = 0
gpu_avg_MEM_PRE, = 0
gpu_avg_L2_RH, = 0.272727
gpu_avg_L2_RM, = 0
gpu_avg_L2_WH, = 0
gpu_avg_L2_WM, = 0
gpu_avg_NOC_A, = 0.363636
gpu_avg_PIPE_A, = 0.0313557
gpu_avg_IDLE_CORE_N, = 79.7707
gpu_avg_CONST_DYNAMICN = 0

---------------------------------------------------------------------------

sm7_t_gto

kernel_avg_power = 139.067
gpu_avg_IBP, = 0.0120726
gpu_avg_ICP, = 0
gpu_avg_DCP, = 0.0821512
gpu_avg_TCP, = 0
gpu_avg_CCP, = 0
gpu_avg_SHRDP, = 0
gpu_avg_RFP, = 3.79585
gpu_avg_SPP, = 3.41123
gpu_avg_SFUP, = 0
gpu_avg_FPUP, = 0
gpu_avg_SCHEDP, = 0.157687
gpu_avg_L2CP, = 0.50659
gpu_avg_MCP, = 1.19387
gpu_avg_NOCP, = 0.697501
gpu_avg_DRAMP, = 0
gpu_avg_PIPEP, = 1.0269
gpu_avg_IDLE_COREP, = 118.36
gpu_avg_CONST_DYNAMICP = 9.82366
gpu_avg_TOT_INST, = 2386
gpu_avg_FP_INT, = 2052
gpu_avg_IC_H, = 0
gpu_avg_IC_M, = 0
gpu_avg_DC_RH, = 0
gpu_avg_DC_RM, = 32
gpu_avg_DC_WH, = 0
gpu_avg_DC_WM, = 0
gpu_avg_TC_H, = 0
gpu_avg_TC_M, = 0
gpu_avg_CC_H, = 0
gpu_avg_CC_M, = 0
gpu_avg_SHRD_ACC, = 0
gpu_avg_REG_RD, = 45120
gpu_avg_REG_WR, = 38016
gpu_avg_NON_REG_OPs, = 40672
gpu_avg_SP_ACC, = 904192
gpu_avg_SFU_ACC, = 0
gpu_avg_FPU_ACC, = 0
gpu_avg_MEM_RD, = 0
gpu_avg_MEM_WR, = 0
gpu_avg_MEM_PRE, = 0
gpu_avg_L2_RH, = 129
gpu_avg_L2_RM, = 0
gpu_avg_L2_WH, = 0
gpu_avg_L2_WM, = 0
gpu_avg_NOC_A, = 257
gpu_avg_PIPE_A, = 0.0403312
gpu_avg_IDLE_CORE_N, = 74.44
gpu_avg_CONST_DYNAMICN = 0

---------------------------------------------------------------------------

sm75_gto

kernel_avg_power = 60.1861
gpu_avg_IBP, = 0.00020883
gpu_avg_ICP, = 0
gpu_avg_DCP, = 0.00102893
gpu_avg_TCP, = 0
gpu_avg_CCP, = 0
gpu_avg_SHRDP, = 0
gpu_avg_RFP, = 0.0215255
gpu_avg_SPP, = 0.00122921
gpu_avg_SFUP, = 0
gpu_avg_FPUP, = 0
gpu_avg_SCHEDP, = 0.00310875
gpu_avg_L2CP, = 0.00107102
gpu_avg_MCP, = 1.17653
gpu_avg_NOCP, = 0.00148037
gpu_avg_DRAMP, = 0
gpu_avg_PIPEP, = 1.68461
gpu_avg_IDLE_COREP, = 47.4716
gpu_avg_CONST_DYNAMICP = 9.82366
gpu_avg_TOT_INST, = 41.2727
gpu_avg_FP_INT, = 40.4545
gpu_avg_IC_H, = 0
gpu_avg_IC_M, = 0
gpu_avg_DC_RH, = 0.0909091
gpu_avg_DC_RM, = 0.272727
gpu_avg_DC_WH, = 0
gpu_avg_DC_WM, = 0
gpu_avg_TC_H, = 0
gpu_avg_TC_M, = 0
gpu_avg_CC_H, = 0
gpu_avg_CC_M, = 0
gpu_avg_SHRD_ACC, = 0
gpu_avg_REG_RD, = 87.2727
gpu_avg_REG_WR, = 66.9091
gpu_avg_NON_REG_OPs, = 270.545
gpu_avg_SP_ACC, = 325.818
gpu_avg_SFU_ACC, = 0
gpu_avg_FPU_ACC, = 0
gpu_avg_MEM_RD, = 0
gpu_avg_MEM_WR, = 0
gpu_avg_MEM_PRE, = 0
gpu_avg_L2_RH, = 0.272727
gpu_avg_L2_RM, = 0
gpu_avg_L2_WH, = 0
gpu_avg_L2_WM, = 0
gpu_avg_NOC_A, = 0.545455
gpu_avg_PIPE_A, = 0.0661625
gpu_avg_IDLE_CORE_N, = 29.8564
gpu_avg_CONST_DYNAMICN = 0

---------------------------------------------------------------------------
---------------------------------------------------------------------------
